Version 4
SHEET 1 1688 680
WIRE 0 -400 -208 -400
WIRE 80 -400 64 -400
WIRE 448 -400 160 -400
WIRE 176 -272 128 -272
WIRE 304 -272 256 -272
WIRE 448 -272 448 -400
WIRE 448 -272 368 -272
WIRE 336 -112 288 -112
WIRE 448 -112 448 -272
WIRE 448 -112 416 -112
WIRE 496 -112 448 -112
WIRE 608 -112 576 -112
WIRE 352 -48 352 -64
WIRE 512 -48 512 -64
WIRE 400 16 384 16
WIRE -320 80 -512 80
WIRE -208 80 -208 -400
WIRE -208 80 -256 80
WIRE -160 80 -208 80
WIRE -32 80 -96 80
WIRE 16 80 -32 80
WIRE 128 80 128 -272
WIRE 128 80 80 80
WIRE 176 80 128 80
WIRE 288 80 288 -112
WIRE 288 80 240 80
WIRE 384 80 384 16
WIRE 384 80 288 80
WIRE 544 80 544 16
WIRE 608 80 608 -112
WIRE 608 80 544 80
WIRE 672 80 608 80
WIRE -512 112 -512 80
WIRE 672 128 672 80
WIRE 384 144 384 80
WIRE 416 144 384 144
WIRE 544 144 544 80
WIRE 544 144 496 144
WIRE -512 176 -512 112
WIRE 288 272 288 80
WIRE 336 272 288 272
WIRE 464 272 416 272
WIRE 496 272 464 272
WIRE 608 272 608 80
WIRE 608 272 576 272
WIRE -944 288 -944 240
WIRE -32 368 -32 80
WIRE 96 368 -32 368
WIRE 192 368 176 368
WIRE 464 368 464 272
WIRE 464 368 256 368
FLAG -944 368 0
FLAG -960 176 Ph1
FLAG -512 256 0
FLAG 400 -64 Ph1
FLAG 560 320 Ph1
FLAG 560 -64 Ph2
FLAG 400 320 Ph2
FLAG 352 -48 0
FLAG 352 320 0
FLAG 512 -48 0
FLAG 512 320 0
FLAG 672 128 0
FLAG -512 112 Vin
FLAG 384 80 Vload
FLAG -928 176 Ph2
SYMBOL voltage -944 272 R0
WINDOW 123 0 0 Left 2
WINDOW 39 0 0 Left 2
SYMATTR InstName V2
SYMATTR Value PULSE(0 1 0 1n 1n {period/2-1n} {period})
SYMBOL Digital\\buf -1008 240 R270
SYMATTR InstName A1
SYMBOL voltage -512 160 R0
WINDOW 123 0 0 Left 2
WINDOW 39 0 0 Left 2
SYMATTR InstName Source
SYMATTR Value 40
SYMBOL sw 320 -112 R270
SYMATTR InstName S5
SYMATTR Value MYSW
SYMBOL sw 480 -112 R270
SYMATTR InstName S6
SYMATTR Value MYSW
SYMBOL sw 480 272 R270
SYMATTR InstName S7
SYMATTR Value MYSW
SYMBOL sw 320 272 R270
SYMATTR InstName S8
SYMATTR Value MYSW
SYMBOL cap 400 32 R270
WINDOW 0 32 32 VTop 2
WINDOW 3 0 32 VBottom 2
SYMATTR InstName Co
SYMATTR Value {cco}
SYMBOL res 64 -384 R270
WINDOW 0 32 56 VTop 2
WINDOW 3 0 56 VBottom 2
SYMATTR InstName R3
SYMATTR Value {ResrC3}
SYMBOL res 80 384 R270
WINDOW 0 32 56 VTop 2
WINDOW 3 0 56 VBottom 2
SYMATTR InstName R2
SYMATTR Value {ResrC2}
SYMBOL res 448 32 R270
WINDOW 0 32 56 VTop 2
WINDOW 3 0 56 VBottom 2
SYMATTR InstName R5
SYMATTR Value {ResrCo}
SYMBOL current 416 144 R270
WINDOW 0 32 40 VTop 2
WINDOW 3 -32 40 VBottom 2
WINDOW 123 0 0 Left 2
WINDOW 39 0 0 Left 2
SYMATTR InstName I1
SYMATTR Value PULSE(0 -2 {1000*period} {2000*period} 0 1 2 1)
SYMBOL diode -256 64 R90
WINDOW 0 0 32 VBottom 2
WINDOW 3 32 32 VTop 2
SYMATTR InstName D1
SYMATTR Value MYDIODE
SYMBOL diode -96 64 R90
WINDOW 0 0 32 VBottom 2
WINDOW 3 32 32 VTop 2
SYMATTR InstName D2
SYMATTR Value MYDIODE
SYMBOL diode 80 64 R90
WINDOW 0 0 32 VBottom 2
WINDOW 3 32 32 VTop 2
SYMATTR InstName D3
SYMATTR Value MYDIODE
SYMBOL diode 240 64 R90
WINDOW 0 0 32 VBottom 2
WINDOW 3 32 32 VTop 2
SYMATTR InstName D4
SYMATTR Value MYDIODE
SYMBOL cap 304 -256 R270
WINDOW 0 32 32 VTop 2
WINDOW 3 0 32 VBottom 2
SYMATTR InstName C1
SYMATTR Value {cc1}
SYMATTR SpiceLine ic=10
SYMBOL cap 0 -384 R270
WINDOW 0 32 32 VTop 2
WINDOW 3 0 32 VBottom 2
SYMATTR InstName C3
SYMATTR Value {cc3}
SYMATTR SpiceLine ic=30
SYMBOL cap 192 384 R270
WINDOW 0 32 32 VTop 2
WINDOW 3 0 32 VBottom 2
SYMATTR InstName C2
SYMATTR Value {cc2}
SYMATTR SpiceLine ic=20
SYMBOL res 160 -256 R270
WINDOW 0 32 56 VTop 2
WINDOW 3 0 56 VBottom 2
SYMATTR InstName R1
SYMATTR Value {ResrC3}
TEXT 688 -296 Left 2 !.model MYSW SW(Ron=10m Roff=1Meg Vt=.5 Vh=0.0)\n.model MYDIODE D(Ron=10m Roff=1Meg Vfwd=.4)
TEXT 680 -48 Left 2 !.meas TRAN IINave AVG I(source)\n.meas TRAN Pin PARAM -IINave*5\n.meas TRAN VOave AVG V(Vload)\n.meas TRAN Pout PARAM VOave*2\n.meas TRAN Ploss PARAM Pin-Pout\n.meas TRAN Efficiency PARAM Pout/Pin\n.meas TRAN VO AVG V(Vload)\n.meas TRAN Vmax MAX V(Vload)\n.meas TRAN Vmin MIN V(Vload)\n.meas TRAN ripple PARAM Vmax-Vmin
TEXT 112 448 Left 2 !.param cc1=10u cc2=10u cc3=10u cco=0u\n.param ResrC1=0.001 ResrC2=0.001 ResrC3=0.001 ResrCo=0.001
TEXT 680 -152 Left 2 !.tran 0 {3008*period+111u} {3000*period+111u} {period/400} uic
TEXT 688 -224 Left 2 !*.step dec PARAM period 0.2u 20u 10\n.param period=4u
