Version 4
SHEET 1 1688 680
WIRE -320 96 -432 96
WIRE -304 96 -320 96
WIRE -208 96 -224 96
WIRE -128 96 -208 96
WIRE -48 96 -128 96
WIRE 80 96 32 96
WIRE 272 96 192 96
WIRE 384 96 272 96
WIRE 80 128 80 96
WIRE 192 128 192 96
WIRE -816 160 -816 128
WIRE -672 160 -672 128
WIRE -432 160 -432 96
WIRE -320 160 -320 96
WIRE -304 160 -320 160
WIRE -208 160 -208 96
WIRE -208 160 -240 160
WIRE -128 176 -128 96
WIRE -128 176 -192 176
WIRE 272 176 272 160
WIRE 512 176 272 176
WIRE 576 176 512 176
WIRE -192 192 -192 176
WIRE -128 192 -128 176
WIRE 80 256 80 208
WIRE 272 256 272 176
WIRE 384 256 384 160
WIRE 512 256 512 240
WIRE 512 256 384 256
WIRE 560 256 512 256
WIRE 576 256 560 256
WIRE -192 288 -192 256
WIRE -128 288 -128 272
WIRE -128 288 -192 288
WIRE -816 320 -816 240
WIRE -672 320 -672 240
WIRE 560 320 560 256
WIRE -432 352 -432 240
WIRE -128 352 -128 288
WIRE -128 352 -432 352
WIRE 80 352 80 320
WIRE 80 352 -128 352
WIRE 192 352 192 208
WIRE 272 352 272 320
WIRE 272 352 192 352
WIRE 384 352 384 320
WIRE 384 352 272 352
WIRE -128 368 -128 352
FLAG -128 368 0
FLAG -128 96 Vin
FLAG 560 320 0
FLAG -816 320 0
FLAG -816 128 Vph1
FLAG -672 128 Vph2
FLAG -288 48 Vph1
FLAG -80 208 Vph2
FLAG -240 48 0
FLAG -80 256 0
FLAG -672 320 0
SYMBOL voltage -432 144 R0
WINDOW 123 0 0 Left 2
WINDOW 39 0 0 Left 2
WINDOW 3 33 73 Left 2
SYMATTR InstName Source
SYMATTR Value 10
SYMBOL cap 64 256 R0
SYMATTR InstName C1
SYMATTR Value {C1}
SYMATTR SpiceLine Rser=1m
SYMBOL ind2 -64 112 R270
WINDOW 0 32 56 VTop 2
WINDOW 3 5 56 VBottom 2
SYMATTR InstName L1
SYMATTR Value {L}
SYMATTR Type ind
SYMBOL ind2 64 112 R0
SYMATTR InstName L2
SYMATTR Value {L}
SYMATTR Type ind
SYMBOL ind2 176 112 R0
SYMATTR InstName L3
SYMATTR Value {L}
SYMATTR Type ind
SYMBOL res 560 160 R0
SYMATTR InstName R2
SYMATTR Value {R}
SYMBOL diode 288 320 R180
WINDOW 0 24 64 Left 2
WINDOW 3 24 0 Left 2
SYMATTR InstName D1
SYMATTR Value MYDIODE
SYMBOL diode 256 96 R0
WINDOW 3 141 61 Left 2
SYMATTR InstName D2
SYMATTR Value MYDIODE
SYMBOL diode 400 160 R180
WINDOW 0 24 64 Left 2
WINDOW 3 24 0 Left 2
SYMATTR InstName D3
SYMATTR Value MYDIODE
SYMBOL diode 368 256 R0
SYMATTR InstName D4
SYMATTR Value MYDIODE
SYMBOL cap 496 176 R0
SYMATTR InstName C2
SYMATTR Value {C2}
SYMBOL sw -208 96 R90
SYMATTR InstName S1
SYMATTR Value MYSW
SYMBOL sw -128 288 R180
SYMATTR InstName S2
SYMATTR Value MYSW
SYMBOL voltage -816 144 R0
WINDOW 123 0 0 Left 2
WINDOW 39 0 0 Left 2
WINDOW 3 -326 126 Invisible 2
SYMATTR InstName Source1
SYMATTR Value PULSE(0 1 0 1n 1n {period/2-10n} {period})
SYMBOL voltage -672 144 R0
WINDOW 123 0 0 Left 2
WINDOW 39 0 0 Left 2
WINDOW 3 -326 126 Invisible 2
SYMATTR InstName Source2
SYMATTR Value PULSE(0 1 {period/2} 1n 1n {period/2-10n} {period})
SYMBOL diode -240 144 R90
WINDOW 0 0 32 VBottom 2
WINDOW 3 32 32 VTop 2
SYMATTR InstName D5
SYMATTR Value MYDIODE
SYMBOL diode -176 256 R180
WINDOW 0 24 64 Left 2
WINDOW 3 24 0 Left 2
SYMATTR InstName D6
SYMATTR Value MYDIODE
TEXT 864 24 Left 2 !.tran 0 {100*period} {98*period}
TEXT 856 248 Left 2 !.model MYSW SW(Ron=10m Roff=1Meg Vt=.5 Vh=0.0\n.model MYDIODE D(Ron=10m Roff=1Meg Vfwd=.4)\nK1 L2 L3 1
TEXT 856 56 Left 2 !.step dec param period 0.1u 10u 10\n*.step dec param L 0.001u 1u 10\n*.step param cc1 0.1u 1u 0.1u
TEXT 856 152 Left 2 !.param L = 1u C1 = 1u R = 1\n.param C2 = 100u\n.param period=(2.828*3.14e-6)*0.8
