*****************************************************************************
* EPC GaN Power Device Library 
* (C) Copyright Efficient Power Conversion Corporation. All rights reserved. 
* ***********************************************************************
* Version History:        
*        1.02:            Changed the EPC2014 Model to fix the IDSS leakage issue
*        1.03:            Included EPC2016 Model; Removed the EPC1000 series Models
*        1.04:            Included the EPC2018 Model 
*        1.05: 09/23/2013 Included the EPC80XX Models 
*        1.06: 01/03/2014 Included EPC8010 Model
*        1.07: 06/30/2014 Included EPC2019 to EPC2024 Models
*        1.08: 09/18/2014 Included EPC2100Q1 and EPC2100Q2 Models,
*                         Fixed the Rg numbers on the EPC2020-EPC2024
*        1.09: 09/29/2014 Included EPC2025 Model
*        1.10: 11/12/2014 Included EPC2101Q1, EPC2101Q2 Models
*                         Included EPC2105Q1, EPC2105Q2 Models
*        1.11: 01/12/2015 Included EPC2027, EPC2001C, EPC2014C, EPC2010C, EPC2012C Models
*                         Updated EPC8010, EPC2019 models 
*        1.12: 01/21/2015 Included EPC2102Q1, EPC2102Q2 Models
*                         Included EPC2103Q1, EPC2103Q2, EPC2007C Models
*
************************************************************************
.subckt EPC2001 gatein drainin sourcein
.param aWg=1077 A1=41.7998 k2=2.259866e+000 k3=1.2e-001 rpara=4.463059e-003  
+	aITc=5.486028e-003 arTc=-4.699671e-003 ax0Tc=0.75E-4 x0_0=-0.75 x0_1=1.10
+	dgs1=4.3e-7 dgs2=2.6e-13 dgs3=.8 dgs4=.23	  
+	ags1=8.6952e-010 ags2=5.3168e-010 ags3=1.9975e+000 ags4=2.8377e-001
+	ags5=-1.4751e-010 ags6=-7.5163e+000 ags7=7.2121e+000
+	agd1=1.4182e-011 agd2=2.1475e-010 agd3=-3.8030e+000 agd4=5.9551e+000
+	asd1=3.3621e-010 asd2=6.3080e-010 asd3=-1.2803e+001 asd4=2.2690e+000
+	asd5=2.5818e-010 asd6=-4.0599e+001 asd7=2.0638e+001
             

rd drainin drain {(0.75*rpara*(1-arTc*(Temp-25)))}
rs sourcein source {(0.25*rpara*(1-arTc*(Temp-25)))}
rg gatein gate {(.6)}
Rcsdconv drain source {100000Meg/aWg}
Rcgsconv gate source {100000Meg/aWg}
Rcgdconv gate drain {100000Meg/aWg}

bswitch drain source I=if(v(drain,source)>0,
+	(A1*(1-aITc*(Temp-25))*log(1.0+exp((v(gate,source)-k2)/k3))* 
+	v(drain,source)/(1 + max((x0_0+x0_1*v(gate,source))/(1+ax0Tc*(Temp-25)*(Temp-25)),0.5)*v(drain,source)) ),
+	(-A1*(1-aITc*(Temp-25))*log(1.0+exp((v(gate,drain)-k2)/k3))* 
+	v(source,drain)/(1 + max((x0_0+x0_1*v(gate,drain))/(1+ax0Tc*(Temp-25)*(Temp-25)),0.5)*v(source,drain)) ) )


bgsdiode gate source I=if( v(gate,source)>10,
+	(0.5*aWg/1077*(dgs1*(exp((10.0)/dgs3)-1)+dgs2*(exp((10.0)/dgs4)-1))),
+	(0.5*aWg/1077*(dgs1*(exp((v(gate,source))/dgs3)-1)+dgs2*(exp((v(gate,source))/dgs4)-1)))   )

bgddiode gate drain I=if( v(gate,drain)>10,
+	(0.5*aWg/1077*(dgs1*(exp((10.0)/dgs3)-1)+dgs2*(exp((10.0)/dgs4)-1))),
+	(0.5*aWg/1077*(dgs1*(exp((v(gate,drain))/dgs3)-1)+dgs2*(exp((v(gate,drain))/dgs4)-1))) )

C_GS       	gate source  {ags1}  TC=0,0
C_CGS1     	gate source Q=(0.5*ags2*ags4*log(1+exp((v(gate,source)-ags3)/ags4))+
+	ags5*ags7*log(1+exp((v(source,drain)-ags6)/ags7)) )

 
C_GD      	gate drain  {agd1}  TC=0,0 
C_CGD1    	gate drain Q=(0.5*ags2*ags4*log(1+exp((v(gate,drain)-ags3)/ags4))+
+	agd2*agd4*log(1+exp((v(gate,drain)-agd3)/agd4)) )

C_SD       	source drain  {asd1}  TC=0,0
C_CSD1	source drain Q=(asd2*asd4*log(1+exp((v(source,drain)-asd3)/asd4))+
+	asd5*asd7*log(1+exp((v(source,drain)-asd6)/asd7)) )

.ends

************************************************************************
.subckt EPC2025 gatein drainin sourcein 
.param aWg=196 A1=4.0021 k2=2.3762 k3=0.15 rpara=0.10411 
 + aITc=0.00504 arTc=-0.0072 k2Tc=0.0007 x0_0=0.95198 x0_1=2.2269e-07 x0_1_TC=0 
 + dgs1=4.3e-07 dgs2=2.6e-13 dgs3=0.8 dgs4=0.23 
 + ags1=1.9381e-10 ags2=1.3782e-10 ags3=2.0665 ags4=0.16166 
 + ags5=-1.1526e-13 ags6=-6.0832 ags7=1.6098 
 + agd1=7.7451e-14 agd2=1.7493e-11 agd3=-0.15175 agd4=0.89395 
 + agd5=2.3545e-11 agd6=-6.5571 agd7=6.2758 
 + agd8=1.0088e-12 agd9=-60.206 agd10=38.787 
 + asd1=2.9668e-11 asd2=1.8442e-10 asd3=-22 asd4=2.3759 
 + asd5=1.6574e-10 asd6=-0.32486 asd7=80.854 
 
rd drainin drain {(0.85*rpara*(1-arTc*(Temp-25)))}
rs sourcein source {(0.15*rpara*(1-arTc*(Temp-25)))}
rg gatein gate {(.6)}

Rcsdconv drain source {100000Meg/aWg}
Rcgsconv gate source {100000Meg/aWg}
Rcgdconv gate drain {100000Meg/aWg}

bswitch drain source I=if(v(drain,source)>0,
+	(A1*(1-aITc*(Temp-25))*log(1.0+exp((v(gate,source)-(k2*(1-k2Tc*(Temp-25))))/k3))* 
+	v(drain,source)/(1 + max(x0_0+x0_1*(1-x0_1_TC*(Temp-25))*v(gate,source),0.2)*v(drain,source)) ),
+	(-A1*(1-aITc*(Temp-25))*log(1.0+exp((v(gate,drain)-(k2*(1-k2Tc*(Temp-25))))/k3))* 
+	v(source,drain)/(1 + max(x0_0+x0_1*(1-x0_1_TC*(Temp-25))*v(gate,drain),0.2)*v(source,drain)) ) )

bgsdiode gate source I=if( v(gate,source)>10,
+	(0.5*aWg/1077*(dgs1*(exp((10.0)/dgs3)-1)+dgs2*(exp((10.0)/dgs4)-1))),
+	(0.5*aWg/1077*(dgs1*(exp((v(gate,source))/dgs3)-1)+dgs2*(exp((v(gate,source))/dgs4)-1)))   )

bgddiode gate drain I=if( v(gate,drain)>10,
+	(0.5*aWg/1077*(dgs1*(exp((10.0)/dgs3)-1)+dgs2*(exp((10.0)/dgs4)-1))),
+	(0.5*aWg/1077*(dgs1*(exp((v(gate,drain))/dgs3)-1)+dgs2*(exp((v(gate,drain))/dgs4)-1))) )


C_GS       	gate source  {ags1}  TC=0,0
C_CGS1     	gate source Q=(0.5*ags2*ags4*log(1+exp((v(gate,source)-ags3)/ags4))+
+	ags5*ags7*log(1+exp((v(source,drain)-ags6)/ags7)) )

C_GD      	gate drain  {agd1}  TC=0,0 
C_CGD1    	gate drain Q=(0.5*ags2*ags4*log(1+exp((v(gate,drain)-ags3)/ags4))+
+	        agd2*agd4*log(1+exp((v(gate,drain)-agd3)/agd4))+
+           agd5*agd7*log(1+exp((v(gate,drain)-agd6)/agd7))+ 
+           agd8*agd10*log(1+exp((v(gate,drain)-agd9)/agd10)))

C_SD       	source drain  {asd1}  TC=0,0
C_CSD1	source drain Q=(asd2*asd4*log(1+exp((v(source,drain)-asd3)/asd4))+
+	asd5*asd7*log(1+exp((v(source,drain)-asd6)/asd7)) )           

.ends

************************************************************************
.subckt EPC2100Q1 gatein drainin sourcein 
.param aWg=681 A1=24.924 k2=2.5255 k3=0.15 rpara=0.0032833 
 + aITc=0.00315 arTc=-0.0063 k2Tc=0.00053 x0_0=1.464 x0_1=3.059e-07 x0_1_TC=0  
 + dgs1=4.3e-07 dgs2=2.6e-13 dgs3=0.8 dgs4=0.23 
 + ags1=3.5976e-10 ags2=2.0033e-10 ags3=1.8788 ags4=0.19396 
 + ags5=-2.0876e-13 ags6=-4.4222 ags7=4.7478 
 + agd1=8.8288e-13 agd2=4.0503e-11 agd3=-0.85909 agd4=1.0026 
 + agd5=5.6379e-11 agd6=-6.6364 agd7=4.8982 
 + agd8=7.9655e-12 agd9=-62.267 agd10=19.215 
 + asd1=8.6993e-11 asd2=1.9398e-10 asd3=-13.566 asd4=6.3577 
 + asd5=2.2832e-10 asd6=-0.65707 asd7=50.803 
 
 
rd drainin drain {(0.75*rpara*(1-arTc*(Temp-25)))}
rs sourcein source {(0.25*rpara*(1-arTc*(Temp-25)))}
rg gatein gate {(.6)}

Rcsdconv drain source {100000Meg/aWg}
Rcgsconv gate source {100000Meg/aWg}
Rcgdconv gate drain {100000Meg/aWg}

bswitch drain source I=if(v(drain,source)>0,
+	(A1*(1-aITc*(Temp-25))*log(1.0+exp((v(gate,source)-(k2*(1-k2Tc*(Temp-25))))/k3))* 
+	v(drain,source)/(1 + max(x0_0+x0_1*(1-x0_1_TC*(Temp-25))*v(gate,source),0.2)*v(drain,source)) ),
+	(-A1*(1-aITc*(Temp-25))*log(1.0+exp((v(gate,drain)-(k2*(1-k2Tc*(Temp-25))))/k3))* 
+	v(source,drain)/(1 + max(x0_0+x0_1*(1-x0_1_TC*(Temp-25))*v(gate,drain),0.2)*v(source,drain)) ) )

bgsdiode gate source I=if( v(gate,source)>10,
+	(0.5*aWg/1077*(dgs1*(exp((10.0)/dgs3)-1)+dgs2*(exp((10.0)/dgs4)-1))),
+	(0.5*aWg/1077*(dgs1*(exp((v(gate,source))/dgs3)-1)+dgs2*(exp((v(gate,source))/dgs4)-1)))   )

bgddiode gate drain I=if( v(gate,drain)>10,
+	(0.5*aWg/1077*(dgs1*(exp((10.0)/dgs3)-1)+dgs2*(exp((10.0)/dgs4)-1))),
+	(0.5*aWg/1077*(dgs1*(exp((v(gate,drain))/dgs3)-1)+dgs2*(exp((v(gate,drain))/dgs4)-1))) )


C_GS       	gate source  {ags1}  TC=0,0
C_CGS1     	gate source Q=(0.5*ags2*ags4*log(1+exp((v(gate,source)-ags3)/ags4))+
+	ags5*ags7*log(1+exp((v(source,drain)-ags6)/ags7)) )

C_GD      	gate drain  {agd1}  TC=0,0 
C_CGD1    	gate drain Q=(0.5*ags2*ags4*log(1+exp((v(gate,drain)-ags3)/ags4))+
+	        agd2*agd4*log(1+exp((v(gate,drain)-agd3)/agd4))+
+           agd5*agd7*log(1+exp((v(gate,drain)-agd6)/agd7))+ 
+           agd8*agd10*log(1+exp((v(gate,drain)-agd9)/agd10)))

C_SD       	source drain  {asd1}  TC=0,0
C_CSD1	source drain Q=(asd2*asd4*log(1+exp((v(source,drain)-asd3)/asd4))+
+	asd5*asd7*log(1+exp((v(source,drain)-asd6)/asd7)) )           

.ends
      
************************************************************************
.subckt EPC2100Q2 gatein drainin sourcein 
.param aWg=2925 A1=100.68 k2=2.3432 k3=0.15 rpara=0.0009182 
 + aITc=0.00315 arTc=-0.0063 k2Tc=0.00053 x0_0=1.2675 x0_1=2.6739e-07 x0_1_TC=0 
 + dgs1=4.3e-07 dgs2=2.6e-13 dgs3=0.8 dgs4=0.23 
 + ags1=1.5355e-09 ags2=8.6945e-10 ags3=1.8439 ags4=0.21693 
 + ags5=-1.059e-13 ags6=-4.7947 ags7=4.8415 
 + agd1=9.9768e-13 agd2=1.7186e-10 agd3=-1.237 agd4=0.98444 
 + agd5=3.0989e-10 agd6=-5.4111 agd7=11.439 
 + agd8=1.558e-11 agd9=-70.043 agd10=8.8454 
 + asd1=1.3104e-10 asd2=6.7257e-10 asd3=-12.934 asd4=6.8364 
 + asd5=2.3406e-09 asd6=-0.4684 asd7=73.653 
  
rd drainin drain {(0.75*rpara*(1-arTc*(Temp-25)))}
rs sourcein source {(0.25*rpara*(1-arTc*(Temp-25)))}
rg gatein gate {(.6)}

Rcsdconv drain source {100000Meg/aWg}
Rcgsconv gate source {100000Meg/aWg}
Rcgdconv gate drain {100000Meg/aWg}

bswitch drain source I=if(v(drain,source)>0,
+	(A1*(1-aITc*(Temp-25))*log(1.0+exp((v(gate,source)-(k2*(1-k2Tc*(Temp-25))))/k3))* 
+	v(drain,source)/(1 + max(x0_0+x0_1*(1-x0_1_TC*(Temp-25))*v(gate,source),0.2)*v(drain,source)) ),
+	(-A1*(1-aITc*(Temp-25))*log(1.0+exp((v(gate,drain)-(k2*(1-k2Tc*(Temp-25))))/k3))* 
+	v(source,drain)/(1 + max(x0_0+x0_1*(1-x0_1_TC*(Temp-25))*v(gate,drain),0.2)*v(source,drain)) ) )

bgsdiode gate source I=if( v(gate,source)>10,
+	(0.5*aWg/1077*(dgs1*(exp((10.0)/dgs3)-1)+dgs2*(exp((10.0)/dgs4)-1))),
+	(0.5*aWg/1077*(dgs1*(exp((v(gate,source))/dgs3)-1)+dgs2*(exp((v(gate,source))/dgs4)-1)))   )

bgddiode gate drain I=if( v(gate,drain)>10,
+	(0.5*aWg/1077*(dgs1*(exp((10.0)/dgs3)-1)+dgs2*(exp((10.0)/dgs4)-1))),
+	(0.5*aWg/1077*(dgs1*(exp((v(gate,drain))/dgs3)-1)+dgs2*(exp((v(gate,drain))/dgs4)-1))) )


C_GS       	gate source  {ags1}  TC=0,0
C_CGS1     	gate source Q=(0.5*ags2*ags4*log(1+exp((v(gate,source)-ags3)/ags4))+
+	ags5*ags7*log(1+exp((v(source,drain)-ags6)/ags7)) )

C_GD      	gate drain  {agd1}  TC=0,0 
C_CGD1    	gate drain Q=(0.5*ags2*ags4*log(1+exp((v(gate,drain)-ags3)/ags4))+
+	        agd2*agd4*log(1+exp((v(gate,drain)-agd3)/agd4))+
+           agd5*agd7*log(1+exp((v(gate,drain)-agd6)/agd7))+ 
+           agd8*agd10*log(1+exp((v(gate,drain)-agd9)/agd10)))

C_SD       	source drain  {asd1}  TC=0,0
C_CSD1	source drain Q=(asd2*asd4*log(1+exp((v(source,drain)-asd3)/asd4))+
+	asd5*asd7*log(1+exp((v(source,drain)-asd6)/asd7)) )           

.ends

************************************************************************
.subckt EPC2101Q1 gatein drainin sourcein 
.param aWg=545 A1=20.964 k2=2.5711 k3=0.15 rpara=0.0050511 
 + aITc=0.004095 arTc=-0.0065 k2Tc=0.00063 x0_0=1.6741 x0_1=4.0292e-07 x0_1_TC=0 
 + dgs1=4.3e-07 dgs2=2.6e-13 dgs3=0.8 dgs4=0.23 
 + ags1=2.7567e-10 ags2=1.4868e-10 ags3=2.0602 ags4=0.1983 
 + ags5=-1.7078e-13 ags6=-5.8427 ags7=3.8068 
 + agd1=8.8e-13 agd2=2.9158e-11 agd3=-0.5565 agd4=2.0012 
 + agd5=5.4008e-11 agd6=-3.5249 agd7=6.5591 
 + agd8=2.8895e-12 agd9=-61.104 agd10=7.4545 
 + asd1=6.5221e-11 asd2=2.1126e-10 asd3=-14.138 asd4=6.6028 
 + asd5=2.5911e-10 asd6=-0.67348 asd7=69.765 

 
rd drainin drain {(0.75*rpara*(1-arTc*(Temp-25)))}
rs sourcein source {(0.25*rpara*(1-arTc*(Temp-25)))}
rg gatein gate {(.6)}

Rcsdconv drain source {100000Meg/aWg}
Rcgsconv gate source {100000Meg/aWg}
Rcgdconv gate drain {100000Meg/aWg}

bswitch drain source I=if(v(drain,source)>0,
+	(A1*(1-aITc*(Temp-25))*log(1.0+exp((v(gate,source)-(k2*(1-k2Tc*(Temp-25))))/k3))* 
+	v(drain,source)/(1 + max(x0_0+x0_1*(1-x0_1_TC*(Temp-25))*v(gate,source),0.2)*v(drain,source)) ),
+	(-A1*(1-aITc*(Temp-25))*log(1.0+exp((v(gate,drain)-(k2*(1-k2Tc*(Temp-25))))/k3))* 
+	v(source,drain)/(1 + max(x0_0+x0_1*(1-x0_1_TC*(Temp-25))*v(gate,drain),0.2)*v(source,drain)) ) )

bgsdiode gate source I=if( v(gate,source)>10,
+	(0.5*aWg/1077*(dgs1*(exp((10.0)/dgs3)-1)+dgs2*(exp((10.0)/dgs4)-1))),
+	(0.5*aWg/1077*(dgs1*(exp((v(gate,source))/dgs3)-1)+dgs2*(exp((v(gate,source))/dgs4)-1)))   )

bgddiode gate drain I=if( v(gate,drain)>10,
+	(0.5*aWg/1077*(dgs1*(exp((10.0)/dgs3)-1)+dgs2*(exp((10.0)/dgs4)-1))),
+	(0.5*aWg/1077*(dgs1*(exp((v(gate,drain))/dgs3)-1)+dgs2*(exp((v(gate,drain))/dgs4)-1))) )


C_GS       	gate source  {ags1}  TC=0,0
C_CGS1     	gate source Q=(0.5*ags2*ags4*log(1+exp((v(gate,source)-ags3)/ags4))+
+	ags5*ags7*log(1+exp((v(source,drain)-ags6)/ags7)) )

C_GD      	gate drain  {agd1}  TC=0,0 
C_CGD1    	gate drain Q=(0.5*ags2*ags4*log(1+exp((v(gate,drain)-ags3)/ags4))+
+	        agd2*agd4*log(1+exp((v(gate,drain)-agd3)/agd4))+
+           agd5*agd7*log(1+exp((v(gate,drain)-agd6)/agd7))+ 
+           agd8*agd10*log(1+exp((v(gate,drain)-agd9)/agd10)))

C_SD       	source drain  {asd1}  TC=0,0
C_CSD1	source drain Q=(asd2*asd4*log(1+exp((v(source,drain)-asd3)/asd4))+
+	asd5*asd7*log(1+exp((v(source,drain)-asd6)/asd7)) )           

.ends
      
************************************************************************
.subckt EPC2101Q2 gatein drainin sourcein 
.param aWg=2332 A1=84.66 k2=2.5638 k3=0.15 rpara=0.001248 
 + aITc=0.0043875 arTc=-0.0065 k2Tc=0.00068 x0_0=1.4548 x0_1=3.5439e-07 x0_1_TC=0 
 + dgs1=4.3e-07 dgs2=2.6e-13 dgs3=0.8 dgs4=0.23 
 + ags1=1.1375e-09 ags2=6.2592e-10 ags3=2.1515 ags4=0.18392 
 + ags5=-1.1623e-13 ags6=-4.9545 ags7=4.0241 
 + agd1=9.7167e-13 agd2=9.7641e-11 agd3=-0.99305 agd4=1.144 
 + agd5=2.3196e-10 agd6=-5.8159 agd7=7.161 
 + agd8=1.6076e-11 agd9=-69.424 agd10=9.7951 
 + asd1=1.0475e-10 asd2=1.1071e-09 asd3=-12.732 asd4=8.3633 
 + asd5=1.9265e-09 asd6=-0.43101 asd7=68.512 
            

rd drainin drain {(0.75*rpara*(1-arTc*(Temp-25)))}
rs sourcein source {(0.25*rpara*(1-arTc*(Temp-25)))}
rg gatein gate {(.6)}

Rcsdconv drain source {100000Meg/aWg}
Rcgsconv gate source {100000Meg/aWg}
Rcgdconv gate drain {100000Meg/aWg}

bswitch drain source I=if(v(drain,source)>0,
+	(A1*(1-aITc*(Temp-25))*log(1.0+exp((v(gate,source)-(k2*(1-k2Tc*(Temp-25))))/k3))* 
+	v(drain,source)/(1 + max(x0_0+x0_1*(1-x0_1_TC*(Temp-25))*v(gate,source),0.2)*v(drain,source)) ),
+	(-A1*(1-aITc*(Temp-25))*log(1.0+exp((v(gate,drain)-(k2*(1-k2Tc*(Temp-25))))/k3))* 
+	v(source,drain)/(1 + max(x0_0+x0_1*(1-x0_1_TC*(Temp-25))*v(gate,drain),0.2)*v(source,drain)) ) )

bgsdiode gate source I=if( v(gate,source)>10,
+	(0.5*aWg/1077*(dgs1*(exp((10.0)/dgs3)-1)+dgs2*(exp((10.0)/dgs4)-1))),
+	(0.5*aWg/1077*(dgs1*(exp((v(gate,source))/dgs3)-1)+dgs2*(exp((v(gate,source))/dgs4)-1)))   )

bgddiode gate drain I=if( v(gate,drain)>10,
+	(0.5*aWg/1077*(dgs1*(exp((10.0)/dgs3)-1)+dgs2*(exp((10.0)/dgs4)-1))),
+	(0.5*aWg/1077*(dgs1*(exp((v(gate,drain))/dgs3)-1)+dgs2*(exp((v(gate,drain))/dgs4)-1))) )


C_GS       	gate source  {ags1}  TC=0,0
C_CGS1     	gate source Q=(0.5*ags2*ags4*log(1+exp((v(gate,source)-ags3)/ags4))+
+	ags5*ags7*log(1+exp((v(source,drain)-ags6)/ags7)) )

C_GD      	gate drain  {agd1}  TC=0,0 
C_CGD1    	gate drain Q=(0.5*ags2*ags4*log(1+exp((v(gate,drain)-ags3)/ags4))+
+	        agd2*agd4*log(1+exp((v(gate,drain)-agd3)/agd4))+
+           agd5*agd7*log(1+exp((v(gate,drain)-agd6)/agd7))+ 
+           agd8*agd10*log(1+exp((v(gate,drain)-agd9)/agd10)))

C_SD       	source drain  {asd1}  TC=0,0
C_CSD1	source drain Q=(asd2*asd4*log(1+exp((v(source,drain)-asd3)/asd4))+
+	asd5*asd7*log(1+exp((v(source,drain)-asd6)/asd7)) )           

.ends

************************************************************************
.subckt EPC2105Q1 gatein drainin sourcein 
.param aWg=495 A1=24.162 k2=2.5174 k3=0.15 rpara=0.0071194 
 + aITc=0.004095 arTc=-0.0065 k2Tc=0.00063 x0_0=2.0936 x0_1=5.0622e-07 x0_1_TC=0 
 + dgs1=4.3e-07 dgs2=2.6e-13 dgs3=0.8 dgs4=0.23 
 + ags1=2.6142e-10 ags2=1.3291e-10 ags3=2.1154 ags4=0.22222 
 + ags5=-2.1478e-13 ags6=-6.4826 ags7=3.788 
 + agd1=1.2296e-12 agd2=2.6957e-11 agd3=-0.59196 agd4=1.8256 
 + agd5=4.7297e-11 agd6=-3.0329 agd7=6.6465 
 + agd8=1.7022e-12 agd9=-58.642 agd10=13.537 
 + asd1=6.8149e-11 asd2=2.1718e-10 asd3=-16.163 asd4=6.1603 
 + asd5=2.4788e-10 asd6=-0.56336 asd7=71.91 

 
rd drainin drain {(0.75*rpara*(1-arTc*(Temp-25)))}
rs sourcein source {(0.25*rpara*(1-arTc*(Temp-25)))}
rg gatein gate {(.6)}

Rcsdconv drain source {100000Meg/aWg}
Rcgsconv gate source {100000Meg/aWg}
Rcgdconv gate drain {100000Meg/aWg}

bswitch drain source I=if(v(drain,source)>0,
+	(A1*(1-aITc*(Temp-25))*log(1.0+exp((v(gate,source)-(k2*(1-k2Tc*(Temp-25))))/k3))* 
+	v(drain,source)/(1 + max(x0_0+x0_1*(1-x0_1_TC*(Temp-25))*v(gate,source),0.2)*v(drain,source)) ),
+	(-A1*(1-aITc*(Temp-25))*log(1.0+exp((v(gate,drain)-(k2*(1-k2Tc*(Temp-25))))/k3))* 
+	v(source,drain)/(1 + max(x0_0+x0_1*(1-x0_1_TC*(Temp-25))*v(gate,drain),0.2)*v(source,drain)) ) )

bgsdiode gate source I=if( v(gate,source)>10,
+	(0.5*aWg/1077*(dgs1*(exp((10.0)/dgs3)-1)+dgs2*(exp((10.0)/dgs4)-1))),
+	(0.5*aWg/1077*(dgs1*(exp((v(gate,source))/dgs3)-1)+dgs2*(exp((v(gate,source))/dgs4)-1)))   )

bgddiode gate drain I=if( v(gate,drain)>10,
+	(0.5*aWg/1077*(dgs1*(exp((10.0)/dgs3)-1)+dgs2*(exp((10.0)/dgs4)-1))),
+	(0.5*aWg/1077*(dgs1*(exp((v(gate,drain))/dgs3)-1)+dgs2*(exp((v(gate,drain))/dgs4)-1))) )


C_GS       	gate source  {ags1}  TC=0,0
C_CGS1     	gate source Q=(0.5*ags2*ags4*log(1+exp((v(gate,source)-ags3)/ags4))+
+	ags5*ags7*log(1+exp((v(source,drain)-ags6)/ags7)) )

C_GD      	gate drain  {agd1}  TC=0,0 
C_CGD1    	gate drain Q=(0.5*ags2*ags4*log(1+exp((v(gate,drain)-ags3)/ags4))+
+	        agd2*agd4*log(1+exp((v(gate,drain)-agd3)/agd4))+
+           agd5*agd7*log(1+exp((v(gate,drain)-agd6)/agd7))+ 
+           agd8*agd10*log(1+exp((v(gate,drain)-agd9)/agd10)))

C_SD       	source drain  {asd1}  TC=0,0
C_CSD1	source drain Q=(asd2*asd4*log(1+exp((v(source,drain)-asd3)/asd4))+
+	asd5*asd7*log(1+exp((v(source,drain)-asd6)/asd7)) )           

.ends
      
************************************************************************
.subckt EPC2105Q2 gatein drainin sourcein 
.param aWg=2118 A1=69.922 k2=2.4452 k3=0.15 rpara=0.001449 
 + aITc=0.0043875 arTc=-0.0065 k2Tc=0.00068 x0_0=1.1852 x0_1=4.7752e-07 x0_1_TC=0 
 + dgs1=4.3e-07 dgs2=2.6e-13 dgs3=0.8 dgs4=0.23 
 + ags1=1.049e-09 ags2=5.1279e-10 ags3=2.0767 ags4=0.20712 
 + ags5=-1.1165e-13 ags6=-5.1057 ags7=4.4313 
 + agd1=8.4364e-13 agd2=1.1793e-10 agd3=-0.99289 agd4=1.1764 
 + agd5=1.7117e-10 agd6=-5.4567 agd7=6.9591 
 + agd8=1.0225e-11 agd9=-82.981 agd10=11.273 
 + asd1=1.0557e-10 asd2=1.3587e-09 asd3=-12.187 asd4=8.0986 
 + asd5=1.691e-09 asd6=-0.38541 asd7=96.974 
            

rd drainin drain {(0.75*rpara*(1-arTc*(Temp-25)))}
rs sourcein source {(0.25*rpara*(1-arTc*(Temp-25)))}
rg gatein gate {(.6)}

Rcsdconv drain source {100000Meg/aWg}
Rcgsconv gate source {100000Meg/aWg}
Rcgdconv gate drain {100000Meg/aWg}

bswitch drain source I=if(v(drain,source)>0,
+	(A1*(1-aITc*(Temp-25))*log(1.0+exp((v(gate,source)-(k2*(1-k2Tc*(Temp-25))))/k3))* 
+	v(drain,source)/(1 + max(x0_0+x0_1*(1-x0_1_TC*(Temp-25))*v(gate,source),0.2)*v(drain,source)) ),
+	(-A1*(1-aITc*(Temp-25))*log(1.0+exp((v(gate,drain)-(k2*(1-k2Tc*(Temp-25))))/k3))* 
+	v(source,drain)/(1 + max(x0_0+x0_1*(1-x0_1_TC*(Temp-25))*v(gate,drain),0.2)*v(source,drain)) ) )

bgsdiode gate source I=if( v(gate,source)>10,
+	(0.5*aWg/1077*(dgs1*(exp((10.0)/dgs3)-1)+dgs2*(exp((10.0)/dgs4)-1))),
+	(0.5*aWg/1077*(dgs1*(exp((v(gate,source))/dgs3)-1)+dgs2*(exp((v(gate,source))/dgs4)-1)))   )

bgddiode gate drain I=if( v(gate,drain)>10,
+	(0.5*aWg/1077*(dgs1*(exp((10.0)/dgs3)-1)+dgs2*(exp((10.0)/dgs4)-1))),
+	(0.5*aWg/1077*(dgs1*(exp((v(gate,drain))/dgs3)-1)+dgs2*(exp((v(gate,drain))/dgs4)-1))) )


C_GS       	gate source  {ags1}  TC=0,0
C_CGS1     	gate source Q=(0.5*ags2*ags4*log(1+exp((v(gate,source)-ags3)/ags4))+
+	ags5*ags7*log(1+exp((v(source,drain)-ags6)/ags7)) )

C_GD      	gate drain  {agd1}  TC=0,0 
C_CGD1    	gate drain Q=(0.5*ags2*ags4*log(1+exp((v(gate,drain)-ags3)/ags4))+
+	        agd2*agd4*log(1+exp((v(gate,drain)-agd3)/agd4))+
+           agd5*agd7*log(1+exp((v(gate,drain)-agd6)/agd7))+ 
+           agd8*agd10*log(1+exp((v(gate,drain)-agd9)/agd10)))

C_SD       	source drain  {asd1}  TC=0,0
C_CSD1	source drain Q=(asd2*asd4*log(1+exp((v(source,drain)-asd3)/asd4))+
+	asd5*asd7*log(1+exp((v(source,drain)-asd6)/asd7)) )           

.ends

************************************************************************
.subckt EPC2023 gatein drainin sourcein 
.param aWg=3933 A1=119.2 k2=2.0734 k3=0.15 rpara=0.0005329 
 + aITc=0.00468 arTc=-0.006 x0_0=1.2487 x0_1=5.1997e-07 x0_1_TC=0 
 + dgs1=4.3e-07 dgs2=2.6e-13 dgs3=0.8 dgs4=0.23 
 + ags1=2.2259e-09 ags2=1.0949e-09 ags3=1.8003 ags4=0.16942 
 + ags5=-1.1694e-13 ags6=-1.8532 ags7=4.9609 
 + agd1=8.0301e-13 agd2=6.2843e-10 agd3=-0.20963 agd4=1.0951 
 + agd5=8.9163e-11 agd6=-6.9587 agd7=3.7128 
 + agd8=6.591e-11 agd9=-44.28 agd10=35.65 
 + asd1=4.1611e-10 asd2=1.5245e-09 asd3=-2.1781 asd4=4.1188 
 + asd5=1.9689e-09 asd6=-0.64343 asd7=39.225 
 
 
rd drainin drain {(0.75*rpara*(1-arTc*(Temp-25)))}
rs sourcein source {(0.25*rpara*(1-arTc*(Temp-25)))}
rg gatein gate {(.3)}

Rcsdconv drain source {100000Meg/aWg}
Rcgsconv gate source {100000Meg/aWg}
Rcgdconv gate drain {100000Meg/aWg}

bswitch drain source I=if(v(drain,source)>0,
+	(A1*(1-aITc*(Temp-25))*log(1.0+exp((v(gate,source)-k2)/k3))* 
+	v(drain,source)/(1 + max(x0_0+x0_1*(1-x0_1_TC*(Temp-25))*v(gate,source),0.2)*v(drain,source)) ),
+	(-A1*(1-aITc*(Temp-25))*log(1.0+exp((v(gate,drain)-k2)/k3))* 
+	v(source,drain)/(1 + max(x0_0+x0_1*(1-x0_1_TC*(Temp-25))*v(gate,drain),0.2)*v(source,drain)) ) )

bgsdiode gate source I=if( v(gate,source)>10,
+	(0.5*aWg/1077*(dgs1*(exp((10.0)/dgs3)-1)+dgs2*(exp((10.0)/dgs4)-1))),
+	(0.5*aWg/1077*(dgs1*(exp((v(gate,source))/dgs3)-1)+dgs2*(exp((v(gate,source))/dgs4)-1)))   )

bgddiode gate drain I=if( v(gate,drain)>10,
+	(0.5*aWg/1077*(dgs1*(exp((10.0)/dgs3)-1)+dgs2*(exp((10.0)/dgs4)-1))),
+	(0.5*aWg/1077*(dgs1*(exp((v(gate,drain))/dgs3)-1)+dgs2*(exp((v(gate,drain))/dgs4)-1))) )


C_GS       	gate source  {ags1}  TC=0,0
C_CGS1     	gate source Q=(0.5*ags2*ags4*log(1+exp((v(gate,source)-ags3)/ags4))+
+	ags5*ags7*log(1+exp((v(source,drain)-ags6)/ags7)) )

C_GD      	gate drain  {agd1}  TC=0,0 
C_CGD1    	gate drain Q=(0.5*ags2*ags4*log(1+exp((v(gate,drain)-ags3)/ags4))+
+	        agd2*agd4*log(1+exp((v(gate,drain)-agd3)/agd4))+
+           agd5*agd7*log(1+exp((v(gate,drain)-agd6)/agd7))+ 
+           agd8*agd10*log(1+exp((v(gate,drain)-agd9)/agd10)))

C_SD       	source drain  {asd1}  TC=0,0
C_CSD1	source drain Q=(asd2*asd4*log(1+exp((v(source,drain)-asd3)/asd4))+
+	asd5*asd7*log(1+exp((v(source,drain)-asd6)/asd7)) )           

.ends
      

************************************************************************
.subckt EPC2024 gatein drainin sourcein 
.param aWg=3699 A1=146.16 k2=2.372 k3=0.15 rpara=0.0007987 
 + aITc=0.00468 arTc=-0.006 x0_0=1.3895 x0_1=7.7158e-07 x0_1_TC=0 
 + dgs1=4.3e-07 dgs2=2.6e-13 dgs3=0.8 dgs4=0.23 
 + ags1=2.103e-09 ags2=1.0263e-09 ags3=1.7968 ags4=0.17275 
 + ags5=-1.4119e-13 ags6=-1.877 ags7=4.7518 
 + agd1=7.877e-13 agd2=5.9367e-10 agd3=-0.2318 agd4=1.145 
 + agd5=7.8439e-11 agd6=-6.958 agd7=3.975 
 + agd8=6.4378e-11 agd9=-38.502 agd10=36.62 
 + asd1=3.8956e-10 asd2=1.4532e-09 asd3=-2.1588 asd4=4.0609 
 + asd5=1.7868e-09 asd6=-0.62351 asd7=47.617 
 
rd drainin drain {(0.75*rpara*(1-arTc*(Temp-25)))}
rs sourcein source {(0.25*rpara*(1-arTc*(Temp-25)))}
rg gatein gate {(.3)}

Rcsdconv drain source {100000Meg/aWg}
Rcgsconv gate source {100000Meg/aWg}
Rcgdconv gate drain {100000Meg/aWg}

bswitch drain source I=if(v(drain,source)>0,
+	(A1*(1-aITc*(Temp-25))*log(1.0+exp((v(gate,source)-k2)/k3))* 
+	v(drain,source)/(1 + max(x0_0+x0_1*(1-x0_1_TC*(Temp-25))*v(gate,source),0.2)*v(drain,source)) ),
+	(-A1*(1-aITc*(Temp-25))*log(1.0+exp((v(gate,drain)-k2)/k3))* 
+	v(source,drain)/(1 + max(x0_0+x0_1*(1-x0_1_TC*(Temp-25))*v(gate,drain),0.2)*v(source,drain)) ) )

bgsdiode gate source I=if( v(gate,source)>10,
+	(0.5*aWg/1077*(dgs1*(exp((10.0)/dgs3)-1)+dgs2*(exp((10.0)/dgs4)-1))),
+	(0.5*aWg/1077*(dgs1*(exp((v(gate,source))/dgs3)-1)+dgs2*(exp((v(gate,source))/dgs4)-1)))   )

bgddiode gate drain I=if( v(gate,drain)>10,
+	(0.5*aWg/1077*(dgs1*(exp((10.0)/dgs3)-1)+dgs2*(exp((10.0)/dgs4)-1))),
+	(0.5*aWg/1077*(dgs1*(exp((v(gate,drain))/dgs3)-1)+dgs2*(exp((v(gate,drain))/dgs4)-1))) )


C_GS       	gate source  {ags1}  TC=0,0
C_CGS1     	gate source Q=(0.5*ags2*ags4*log(1+exp((v(gate,source)-ags3)/ags4))+
+	ags5*ags7*log(1+exp((v(source,drain)-ags6)/ags7)) )

C_GD      	gate drain  {agd1}  TC=0,0 
C_CGD1    	gate drain Q=(0.5*ags2*ags4*log(1+exp((v(gate,drain)-ags3)/ags4))+
+	        agd2*agd4*log(1+exp((v(gate,drain)-agd3)/agd4))+
+           agd5*agd7*log(1+exp((v(gate,drain)-agd6)/agd7))+ 
+           agd8*agd10*log(1+exp((v(gate,drain)-agd9)/agd10)))

C_SD       	source drain  {asd1}  TC=0,0
C_CSD1	source drain Q=(asd2*asd4*log(1+exp((v(source,drain)-asd3)/asd4))+
+	asd5*asd7*log(1+exp((v(source,drain)-asd6)/asd7)) )           

.ends
      
************************************************************************
.subckt EPC2020 gatein drainin sourcein 
.param aWg=3138 A1=103.86 k2=2.2285 k3=0.15 rpara=0.0008749 
 + aITc=0.00468 arTc=-0.006 x0_0=1.3 x0_1=3.4967e-07 x0_1_TC=0 
 + dgs1=4.3e-07 dgs2=2.6e-13 dgs3=0.8 dgs4=0.23 
 + ags1=1.8043e-09 ags2=8.7659e-10 ags3=1.8001 ags4=0.17348 
 + ags5=-1.4112e-13 ags6=-1.8893 ags7=4.7177 
 + agd1=7.4163e-13 agd2=4.8471e-10 agd3=-0.28121 agd4=1.1628 
 + agd5=6.4308e-11 agd6=-7.0566 agd7=5.0934 
 + agd8=5.3063e-11 agd9=-39.071 agd10=40.698 
 + asd1=4.8567e-10 asd2=1.6023e-09 asd3=-2.0107 asd4=3.2376 
 + asd5=1.5248e-09 asd6=-0.48883 asd7=56.781 
 
rd drainin drain {(0.75*rpara*(1-arTc*(Temp-25)))}
rs sourcein source {(0.25*rpara*(1-arTc*(Temp-25)))}
rg gatein gate {(.3)}

Rcsdconv drain source {100000Meg/aWg}
Rcgsconv gate source {100000Meg/aWg}
Rcgdconv gate drain {100000Meg/aWg}

bswitch drain source I=if(v(drain,source)>0,
+	(A1*(1-aITc*(Temp-25))*log(1.0+exp((v(gate,source)-k2)/k3))* 
+	v(drain,source)/(1 + max(x0_0+x0_1*(1-x0_1_TC*(Temp-25))*v(gate,source),0.2)*v(drain,source)) ),
+	(-A1*(1-aITc*(Temp-25))*log(1.0+exp((v(gate,drain)-k2)/k3))* 
+	v(source,drain)/(1 + max(x0_0+x0_1*(1-x0_1_TC*(Temp-25))*v(gate,drain),0.2)*v(source,drain)) ) )

bgsdiode gate source I=if( v(gate,source)>10,
+	(0.5*aWg/1077*(dgs1*(exp((10.0)/dgs3)-1)+dgs2*(exp((10.0)/dgs4)-1))),
+	(0.5*aWg/1077*(dgs1*(exp((v(gate,source))/dgs3)-1)+dgs2*(exp((v(gate,source))/dgs4)-1)))   )

bgddiode gate drain I=if( v(gate,drain)>10,
+	(0.5*aWg/1077*(dgs1*(exp((10.0)/dgs3)-1)+dgs2*(exp((10.0)/dgs4)-1))),
+	(0.5*aWg/1077*(dgs1*(exp((v(gate,drain))/dgs3)-1)+dgs2*(exp((v(gate,drain))/dgs4)-1))) )


C_GS       	gate source  {ags1}  TC=0,0
C_CGS1     	gate source Q=(0.5*ags2*ags4*log(1+exp((v(gate,source)-ags3)/ags4))+
+	ags5*ags7*log(1+exp((v(source,drain)-ags6)/ags7)) )

C_GD      	gate drain  {agd1}  TC=0,0 
C_CGD1    	gate drain Q=(0.5*ags2*ags4*log(1+exp((v(gate,drain)-ags3)/ags4))+
+	        agd2*agd4*log(1+exp((v(gate,drain)-agd3)/agd4))+
+           agd5*agd7*log(1+exp((v(gate,drain)-agd6)/agd7))+ 
+           agd8*agd10*log(1+exp((v(gate,drain)-agd9)/agd10)))

C_SD       	source drain  {asd1}  TC=0,0
C_CSD1	source drain Q=(asd2*asd4*log(1+exp((v(source,drain)-asd3)/asd4))+
+	asd5*asd7*log(1+exp((v(source,drain)-asd6)/asd7)) )           

.ends
      
************************************************************************
.subckt EPC2021 gatein drainin sourcein 
.param aWg=2849 A1=89.835 k2=1.8995 k3=0.15 rpara=0.0011869 
 + aITc=0.00468 arTc=-0.006 x0_0=1.1562 x0_1=3.3676e-07 x0_1_TC=0 
 + dgs1=4.3e-07 dgs2=2.6e-13 dgs3=0.8 dgs4=0.23 
 + ags1=1.655e-09 ags2=7.8294e-10 ags3=1.8086 ags4=0.16574 
 + ags5=-1.2968e-13 ags6=-1.8921 ags7=5.5802 
 + agd1=7.0387e-13 agd2=4.5129e-10 agd3=-0.28105 agd4=1.2587 
 + agd5=5.18e-11 agd6=-8.7649 agd7=6.6596 
 + agd8=4.6219e-11 agd9=-38.754 agd10=55.519 
 + asd1=4.7132e-10 asd2=1.9705e-09 asd3=-2.7245 asd4=4.9429 
 + asd5=1.5086e-09 asd6=-0.5177 asd7=62.071 

rd drainin drain {(0.75*rpara*(1-arTc*(Temp-25)))}
rs sourcein source {(0.25*rpara*(1-arTc*(Temp-25)))}
rg gatein gate {(.3)}

Rcsdconv drain source {100000Meg/aWg}
Rcgsconv gate source {100000Meg/aWg}
Rcgdconv gate drain {100000Meg/aWg}

bswitch drain source I=if(v(drain,source)>0,
+	(A1*(1-aITc*(Temp-25))*log(1.0+exp((v(gate,source)-k2)/k3))* 
+	v(drain,source)/(1 + max(x0_0+x0_1*(1-x0_1_TC*(Temp-25))*v(gate,source),0.2)*v(drain,source)) ),
+	(-A1*(1-aITc*(Temp-25))*log(1.0+exp((v(gate,drain)-k2)/k3))* 
+	v(source,drain)/(1 + max(x0_0+x0_1*(1-x0_1_TC*(Temp-25))*v(gate,drain),0.2)*v(source,drain)) ) )

bgsdiode gate source I=if( v(gate,source)>10,
+	(0.5*aWg/1077*(dgs1*(exp((10.0)/dgs3)-1)+dgs2*(exp((10.0)/dgs4)-1))),
+	(0.5*aWg/1077*(dgs1*(exp((v(gate,source))/dgs3)-1)+dgs2*(exp((v(gate,source))/dgs4)-1)))   )

bgddiode gate drain I=if( v(gate,drain)>10,
+	(0.5*aWg/1077*(dgs1*(exp((10.0)/dgs3)-1)+dgs2*(exp((10.0)/dgs4)-1))),
+	(0.5*aWg/1077*(dgs1*(exp((v(gate,drain))/dgs3)-1)+dgs2*(exp((v(gate,drain))/dgs4)-1))) )


C_GS       	gate source  {ags1}  TC=0,0
C_CGS1     	gate source Q=(0.5*ags2*ags4*log(1+exp((v(gate,source)-ags3)/ags4))+
+	ags5*ags7*log(1+exp((v(source,drain)-ags6)/ags7)) )

C_GD      	gate drain  {agd1}  TC=0,0 
C_CGD1    	gate drain Q=(0.5*ags2*ags4*log(1+exp((v(gate,drain)-ags3)/ags4))+
+	        agd2*agd4*log(1+exp((v(gate,drain)-agd3)/agd4))+
+           agd5*agd7*log(1+exp((v(gate,drain)-agd6)/agd7))+ 
+           agd8*agd10*log(1+exp((v(gate,drain)-agd9)/agd10)))

C_SD       	source drain  {asd1}  TC=0,0
C_CSD1	source drain Q=(asd2*asd4*log(1+exp((v(source,drain)-asd3)/asd4))+
+	asd5*asd7*log(1+exp((v(source,drain)-asd6)/asd7)) )           

.ends
      
************************************************************************